# This set-up makes is supposed to immitate salt. That is, PTRACER(:,:,:,1) 
# should look exactly like S(:,:,:).
 &PTRACERS_PARM01
#PTRACERS_numInUse=1,
#PTRACERS_Iter0=1,
# tracer 1
#PTRACERS_diffKr(1)=1.E-5,
#PTRACERS_initialFile(1)='ad_scotia_tracer.bin',
#PTRACERS_advScheme(1)=30,
 &
